[TITLE]
FiPLSim Validation — E-B0-2
; P_inlet=0.55 MPa, bead=0.0 mm

[JUNCTIONS]
;ID              	Elev	Demand
J_equip         	0.00	0.000000
J_cm0           	0.00	0.000000
J_b0_in         	0.00	0.000000
J_b0_rd         	0.00	0.000000
J_b0_h0         	0.00	1.333333
J_b0_h1         	0.00	1.333333
J_b0_h2         	0.00	1.333333
J_b0_h3         	0.00	1.333333
J_b0_h4         	0.00	1.333333
J_b0_h5         	0.00	1.333333
J_b0_h6         	0.00	1.333333
J_b0_h7         	0.00	1.333333
J_cm1           	0.00	0.000000
J_b1_in         	0.00	0.000000
J_b1_rd         	0.00	0.000000
J_b1_h0         	0.00	1.333333
J_b1_h1         	0.00	1.333333
J_b1_h2         	0.00	1.333333
J_b1_h3         	0.00	1.333333
J_b1_h4         	0.00	1.333333
J_b1_h5         	0.00	1.333333
J_b1_h6         	0.00	1.333333
J_b1_h7         	0.00	1.333333
J_cm2           	0.00	0.000000
J_b2_in         	0.00	0.000000
J_b2_rd         	0.00	0.000000
J_b2_h0         	0.00	1.333333
J_b2_h1         	0.00	1.333333
J_b2_h2         	0.00	1.333333
J_b2_h3         	0.00	1.333333
J_b2_h4         	0.00	1.333333
J_b2_h5         	0.00	1.333333
J_b2_h6         	0.00	1.333333
J_b2_h7         	0.00	1.333333
J_cm3           	0.00	0.000000
J_b3_in         	0.00	0.000000
J_b3_rd         	0.00	0.000000
J_b3_h0         	0.00	1.333333
J_b3_h1         	0.00	1.333333
J_b3_h2         	0.00	1.333333
J_b3_h3         	0.00	1.333333
J_b3_h4         	0.00	1.333333
J_b3_h5         	0.00	1.333333
J_b3_h6         	0.00	1.333333
J_b3_h7         	0.00	1.333333

[RESERVOIRS]
;ID	Head
R1	56.065240

[TANKS]

[PIPES]
;ID              	Node1           	Node2           	Length	Diameter	Roughness	MinorLoss	Status
P_supply        	R1              	J_equip         	0.0100	102.2600	0.046000	6.200000	Open
P_cm0           	J_equip         	J_cm0           	0.0100	77.9200	0.046000	0.000000	Open
P_cm1           	J_cm0           	J_cm1           	3.5000	77.9200	0.046000	0.300000	Open
P_cm2           	J_cm1           	J_cm2           	3.5000	77.9200	0.046000	0.300000	Open
P_cm3           	J_cm2           	J_cm3           	3.5000	77.9200	0.046000	0.300000	Open
P_b0_k3         	J_cm0           	J_b0_in         	0.3000	62.7100	0.046000	1.000000	Open
P_b0_red        	J_b0_in         	J_b0_rd         	0.0100	52.5100	0.046000	0.016886	Open
P_b0_h0         	J_b0_rd         	J_b0_h0         	2.1000	52.5100	0.046000	3.000000	Open
P_b0_h1         	J_b0_h0         	J_b0_h1         	2.1000	52.5100	0.046000	3.000000	Open
P_b0_h2         	J_b0_h1         	J_b0_h2         	2.1000	52.5100	0.046000	3.000000	Open
P_b0_h3         	J_b0_h2         	J_b0_h3         	2.1000	40.9000	0.046000	3.024687	Open
P_b0_h4         	J_b0_h3         	J_b0_h4         	2.1000	40.9000	0.046000	3.000000	Open
P_b0_h5         	J_b0_h4         	J_b0_h5         	2.1000	35.0400	0.046000	3.010211	Open
P_b0_h6         	J_b0_h5         	J_b0_h6         	2.1000	26.6400	0.046000	3.028836	Open
P_b0_h7         	J_b0_h6         	J_b0_h7         	2.1000	26.6400	0.046000	3.000000	Open
P_b1_k3         	J_cm1           	J_b1_in         	0.3000	62.7100	0.046000	1.000000	Open
P_b1_red        	J_b1_in         	J_b1_rd         	0.0100	52.5100	0.046000	0.016886	Open
P_b1_h0         	J_b1_rd         	J_b1_h0         	2.1000	52.5100	0.046000	3.000000	Open
P_b1_h1         	J_b1_h0         	J_b1_h1         	2.1000	52.5100	0.046000	3.000000	Open
P_b1_h2         	J_b1_h1         	J_b1_h2         	2.1000	52.5100	0.046000	3.000000	Open
P_b1_h3         	J_b1_h2         	J_b1_h3         	2.1000	40.9000	0.046000	3.024687	Open
P_b1_h4         	J_b1_h3         	J_b1_h4         	2.1000	40.9000	0.046000	3.000000	Open
P_b1_h5         	J_b1_h4         	J_b1_h5         	2.1000	35.0400	0.046000	3.010211	Open
P_b1_h6         	J_b1_h5         	J_b1_h6         	2.1000	26.6400	0.046000	3.028836	Open
P_b1_h7         	J_b1_h6         	J_b1_h7         	2.1000	26.6400	0.046000	3.000000	Open
P_b2_k3         	J_cm2           	J_b2_in         	0.3000	62.7100	0.046000	1.000000	Open
P_b2_red        	J_b2_in         	J_b2_rd         	0.0100	52.5100	0.046000	0.016886	Open
P_b2_h0         	J_b2_rd         	J_b2_h0         	2.1000	52.5100	0.046000	3.000000	Open
P_b2_h1         	J_b2_h0         	J_b2_h1         	2.1000	52.5100	0.046000	3.000000	Open
P_b2_h2         	J_b2_h1         	J_b2_h2         	2.1000	52.5100	0.046000	3.000000	Open
P_b2_h3         	J_b2_h2         	J_b2_h3         	2.1000	40.9000	0.046000	3.024687	Open
P_b2_h4         	J_b2_h3         	J_b2_h4         	2.1000	40.9000	0.046000	3.000000	Open
P_b2_h5         	J_b2_h4         	J_b2_h5         	2.1000	35.0400	0.046000	3.010211	Open
P_b2_h6         	J_b2_h5         	J_b2_h6         	2.1000	26.6400	0.046000	3.028836	Open
P_b2_h7         	J_b2_h6         	J_b2_h7         	2.1000	26.6400	0.046000	3.000000	Open
P_b3_k3         	J_cm3           	J_b3_in         	0.3000	62.7100	0.046000	1.000000	Open
P_b3_red        	J_b3_in         	J_b3_rd         	0.0100	52.5100	0.046000	0.016886	Open
P_b3_h0         	J_b3_rd         	J_b3_h0         	2.1000	52.5100	0.046000	3.000000	Open
P_b3_h1         	J_b3_h0         	J_b3_h1         	2.1000	52.5100	0.046000	3.000000	Open
P_b3_h2         	J_b3_h1         	J_b3_h2         	2.1000	52.5100	0.046000	3.000000	Open
P_b3_h3         	J_b3_h2         	J_b3_h3         	2.1000	40.9000	0.046000	3.024687	Open
P_b3_h4         	J_b3_h3         	J_b3_h4         	2.1000	40.9000	0.046000	3.000000	Open
P_b3_h5         	J_b3_h4         	J_b3_h5         	2.1000	35.0400	0.046000	3.010211	Open
P_b3_h6         	J_b3_h5         	J_b3_h6         	2.1000	26.6400	0.046000	3.028836	Open
P_b3_h7         	J_b3_h6         	J_b3_h7         	2.1000	26.6400	0.046000	3.000000	Open

[PUMPS]

[VALVES]

[EMITTERS]

[CURVES]

[PATTERNS]

[ENERGY]

[STATUS]

[RULES]

[DEMANDS]

[OPTIONS]
UNITS              	LPS
HEADLOSS           	D-W
VISCOSITY          	1.002000
SPECIFIC GRAVITY   	1.002004
TRIALS             	200
ACCURACY           	0.000001
UNBALANCED         	CONTINUE 100

[TIMES]
DURATION           	0:00
HYDRAULIC TIMESTEP 	0:05
REPORT TIMESTEP    	0:05

[REPORT]
STATUS             	NO
SUMMARY            	NO
NODES              	ALL
LINKS              	ALL

[COORDINATES]
R1	0.00	0.00
J_equip	1.00	0.00
J_cm0	2.00	0.00
J_b0_in	2.00	-1.00
J_b0_rd	2.00	-2.00
J_b0_h0	2.00	-3.00
J_b0_h1	2.00	-4.00
J_b0_h2	2.00	-5.00
J_b0_h3	2.00	-6.00
J_b0_h4	2.00	-7.00
J_b0_h5	2.00	-8.00
J_b0_h6	2.00	-9.00
J_b0_h7	2.00	-10.00
J_cm1	5.50	0.00
J_b1_in	5.50	-1.00
J_b1_rd	5.50	-2.00
J_b1_h0	5.50	-3.00
J_b1_h1	5.50	-4.00
J_b1_h2	5.50	-5.00
J_b1_h3	5.50	-6.00
J_b1_h4	5.50	-7.00
J_b1_h5	5.50	-8.00
J_b1_h6	5.50	-9.00
J_b1_h7	5.50	-10.00
J_cm2	9.00	0.00
J_b2_in	9.00	-1.00
J_b2_rd	9.00	-2.00
J_b2_h0	9.00	-3.00
J_b2_h1	9.00	-4.00
J_b2_h2	9.00	-5.00
J_b2_h3	9.00	-6.00
J_b2_h4	9.00	-7.00
J_b2_h5	9.00	-8.00
J_b2_h6	9.00	-9.00
J_b2_h7	9.00	-10.00
J_cm3	12.50	0.00
J_b3_in	12.50	-1.00
J_b3_rd	12.50	-2.00
J_b3_h0	12.50	-3.00
J_b3_h1	12.50	-4.00
J_b3_h2	12.50	-5.00
J_b3_h3	12.50	-6.00
J_b3_h4	12.50	-7.00
J_b3_h5	12.50	-8.00
J_b3_h6	12.50	-9.00
J_b3_h7	12.50	-10.00

[VERTICES]

[LABELS]

[BACKDROP]

[END]