/*--------------------------------*- C++ -*----------------------------------*\
| =========                 |                                                 |
| \\      /  F ield         | OpenFOAM: The Open Source CFD Toolbox           |
|  \\    /   O peration     | Version:                                        |
|   \\  /    A nd           | Website:  www.openfoam.com                      |
|    \\/     M anipulation  |                                                 |
\*---------------------------------------------------------------------------*/
FoamFile
{
    version     2.0;
    format      ascii;
    class       polyBoundaryMesh;
    location    "constant/polyMesh";
    object      boundary;
}
// * * * * * * * * * * * * * * * * * * * * * * * * * * * * * * * * * * * * * //

4
(
    inlet
    {
        type            patch;
        nFaces          25;
        startFace       11440;
    }
    outlet1
    {
        type            patch;
        nFaces          30;
        startFace       11465;
    }
    outlet2
    {
        type            patch;
        nFaces          30;
        startFace       11495;
    }
    defaultFaces
    {
        type            wall;
        inGroups        1(wall);
        nFaces          3285;
        startFace       11525;
    }
)

// ************************************************************************* //
